Version 4
SHEET 1 880 680
WIRE 0 -144 -128 -144
WIRE 288 -144 64 -144
WIRE -464 -48 -464 -80
WIRE -224 -32 -304 -32
WIRE -128 -32 -128 -144
WIRE -128 -32 -144 -32
WIRE -112 -32 -128 -32
WIRE -16 -32 -32 -32
WIRE 112 -32 -16 -32
WIRE 288 0 288 -144
WIRE 288 0 224 0
WIRE -304 32 -304 -32
WIRE 112 32 80 32
WIRE 80 128 80 32
WIRE 288 128 288 0
WIRE 288 128 80 128
WIRE -304 144 -304 112
WIRE -16 160 -16 -32
WIRE -16 272 -16 224
FLAG -304 144 0
FLAG -16 272 0
FLAG -464 -48 0
FLAG -560 -208 vcc
FLAG 160 48 vcc
FLAG -560 64 vee
FLAG 160 -48 vee
SYMBOL TCLib\\TL082 304 48 M180
SYMATTR InstName U1
SYMBOL res -240 -16 R270
WINDOW 0 27 56 VTop 2
WINDOW 3 2 56 VBottom 2
SYMATTR InstName R1
SYMATTR Value {r1}
SYMBOL res -128 -16 R270
WINDOW 0 27 56 VTop 2
WINDOW 3 2 56 VBottom 2
SYMATTR InstName R2
SYMATTR Value {r2}
SYMBOL cap -32 160 R0
SYMATTR InstName C2
SYMATTR Value {c2}
SYMBOL cap 0 -128 R270
WINDOW 0 32 32 VTop 2
WINDOW 3 0 32 VBottom 2
SYMATTR InstName C1
SYMATTR Value {c1}
SYMBOL voltage -304 16 R0
WINDOW 123 24 124 Left 2
WINDOW 39 0 0 Left 0
SYMATTR InstName V1
SYMATTR Value 1
SYMATTR Value2 AC 1
SYMBOL TCLib\\supply -592 -32 R0
SYMATTR InstName U2
TEXT -288 344 Left 2 !.param r1= 100000 r2= 330000 c1= 4.54788845889919e-7 c2= 6.12687551665268e-9
TEXT -624 368 Left 2 !.ac dec 1000 1 1000
